*Heading
** Job name: oring_2d-0508-_0p71_remesh Model name: orint_2d-0505-_0p71_sur2sur-Press_v5
** Generated by: Abaqus/CAE 6.11-1
*Preprint, echo=NO, model=NO, history=NO, contact=NO
**
** PARTS
**
*Part, name=PART-1-1
*Node
  24717,  -2.00027323,   1.78244841
 342711,   -1.7750057,   1.78244817
 342712,  -1.79548454,   1.78244817
 342713,  -1.81596351,   1.78244817
 342714,  -1.83644235,   1.78244829
 342715,   -1.8569212,   1.78244829
 342716,  -1.87740004,   1.78244829
 342717,    -1.897879,   1.78244829
 342718,  -1.91835785,   1.78244829
 342719,  -1.93883669,   1.78244829
 342720,  -1.95931554,   1.78244829
 342721,   -1.9797945,   1.78244841
 370852,  -1.77502131,   1.80250216
 370853,    -1.776214,   1.82195985
 370854,  -1.77926743,   1.84107447
 370855,   -1.7841289,   1.85972071
 370856,  -1.79074574,   1.87777364
 370857,  -1.79906547,   1.89510822
 370858,  -1.80903518,   1.91159928
 370859,  -1.82060254,   1.92712176
** ... 24179 like lines cut
*Element, type=CPS3
368867, 370880, 370889, 370881
368966, 370880, 370897, 370969
847923, 560715, 560716, 706428
847924, 706467, 706468, 706469
847925, 706449, 706450, 706488
847926, 706488, 706450, 706451
847927, 706461, 706462, 706520
847928, 706520, 706462, 706463
847929, 706540, 706445, 706446
847930, 706487, 560582, 706489
847931, 706489, 560582, 560583
847932, 706489, 560583, 560584
847933, 706489, 560584, 706490
847934, 706490, 560584, 560585
847935, 706490, 560585, 560586
847936, 560714, 560715, 706491
847937, 706491, 560715, 706428
847938, 560713, 560714, 706491
847939, 706490, 560586, 706492
847940, 706492, 560586, 560587
** ... 5006 like lines cut
*Element, type=CPS4R
368868, 370881, 370889, 370890, 370882
368869, 370882, 370890, 370891, 370883
368870, 370883, 370891, 370892, 370884
368871, 370884, 370892, 370893, 370885
368872, 370885, 370893, 370894, 370886
368873, 370886, 370894, 370895, 370887
368874, 370887, 370895, 370896, 370888
368875, 370888, 370896, 370870, 370871
368876, 370880, 370860, 370861, 370889
368877, 370889, 370861, 370862, 370890
368878, 370890, 370862, 370863, 370891
368879, 370891, 370863, 370864, 370892
368880, 370892, 370864, 370865, 370893
368881, 370893, 370865, 370866, 370894
368882, 370894, 370866, 370867, 370895
368883, 370895, 370867, 370868, 370896
368884, 370896, 370868, 370869, 370870
368885, 370880, 370881, 370905, 370897
368886, 370897, 370905, 370906, 370898
368887, 370898, 370906, 370907, 370899
** ... 21288 like lines cut
*Elset, elset=FAPIAN
 368867, 368868, 368869, 368870, 368871, 368872, 368873, 368874, 368875, 368876, 368877, 368878, 368879, 368880, 368881, 368882
 368883, 368884, 368885, 368886, 368887, 368888, 368889, 368890, 368891, 368892, 368893, 368894, 368895, 368896, 368897, 368898
 368899, 368900, 368901, 368902, 368903, 368904, 368905, 368906, 368907, 368908, 368909, 368910, 368911, 368912, 368913, 368914
 368915, 368916, 368917, 368918, 368919, 368920, 368921, 368922, 368923, 368924, 368925, 368926, 368927, 368928, 368929, 368930
 368931, 368932, 368933, 368934, 368935, 368936, 368937, 368938, 368939, 368940, 368941, 368942, 368943, 368944, 368945, 368946
 368947, 368948, 368949, 368950, 368951, 368952, 368953, 368954, 368955, 368956, 368957, 368958, 368959, 368960, 368961, 368962
 368963, 368964, 368965, 368966, 368967, 368968, 368969, 368970, 368971, 368972, 368973, 368974, 368975, 368976, 368977, 368978
 368979, 368980, 368981, 368982, 368983, 459613, 459614, 459615, 459616, 459617, 459618, 459619, 459620, 459621, 459622, 459623
 459624, 459625, 459626, 459627, 459628, 459629, 459630, 459631, 459632, 459633, 459634, 459635, 459636, 459637, 459638, 459639
 459640, 459641, 459642, 459643, 459644, 459645, 459646, 459647, 459648, 459649, 459650, 459651, 459652, 459653, 459654, 459655
 459656, 459657, 459658, 459659, 459660, 459661, 459662, 459663, 459664, 459665, 459666, 459667, 459668, 459669, 459670, 459671
 459672, 459673, 459674, 459675, 459676, 459677, 459678, 459679, 459680, 459681, 459682, 459683, 459684, 459685, 459686, 459687
 459688, 459689, 459690, 459691, 459692, 459693, 459694, 459695, 459696, 459697, 459698, 459699, 459700, 459701, 459702, 459703
 459704, 459705, 459706, 459707, 459708, 459709, 459710, 459711, 459712, 459713, 459714, 459715, 459716, 459717, 459718, 459719
 459720, 459721, 459722, 459723, 459724, 459725, 459726, 459727, 459728, 459729, 459730, 459731, 459732, 459733, 459734, 459735
 459736, 459737, 459738, 459739, 459740, 459741, 459742, 459743, 459744, 459745, 459746, 459747, 459748, 459749, 459750, 459751
 459752, 459753, 459754, 459755, 459756, 459757, 459758, 459759, 459760, 459761, 459762, 459763, 459764, 459765, 459766, 459767
 459768, 459769, 459770, 459771, 459772, 459773, 459774, 459775, 459776, 459777, 459778, 459779, 459780, 459781, 459782, 459783
 459784, 459785, 459786, 459787, 459788, 459789, 459790, 459791, 459792, 459793, 459794, 459795, 459796, 459797, 459798, 459799
 459800, 459801, 459802, 459803, 459804, 459805, 459806, 459807, 459808, 459809, 459810, 459811, 459812, 459813, 459814, 459815
** ... 505 like lines cut
*Elset, elset=ORING_2D, generate
 853405,  871353,       1
*End Part
**  
**
** ASSEMBLY
**
*Assembly, name=Assembly
**  
*Instance, name=PART-1-1-1, part=PART-1-1
*End Instance
**  
*End Assembly
** 
** MATERIALS
** 
*Material, name=FAPIAN
*Elastic
200000., 0.3
*Material, name=XIANGJIAO
*Hyperelastic, mooney-rivlin
 0.1993, 0.0897,     0.
** 
** INTERACTION PROPERTIES
** 
*Surface Interaction, name=JIECHU1
1.,
*Friction, slip tolerance=0.005
 0.15,
** ----------------------------------------------------------------
** 
** STEP: Step-1
** 
*Step, name=Step-1, nlgeom=YES
*Static
0.25, 1., 1e-05, 1.
** 
** OUTPUT REQUESTS
** 
*Restart, write, frequency=0
** 
** FIELD OUTPUT: F-Output-1
** 
*Output, field, variable=PRESELECT
** 
** HISTORY OUTPUT: H-Output-1
** 
*Output, history, variable=PRESELECT
*End Step
** ----------------------------------------------------------------
** 
** STEP: Step-2
** 
*Step, name=Step-2, nlgeom=YES
*Static
0.05, 1., 1e-05, 0.05
** 
** OUTPUT REQUESTS
** 
*Restart, write, number interval=1, time marks=NO
** 
** FIELD OUTPUT: F-Output-2
** 
*Output, field, variable=PRESELECT
** 
** HISTORY OUTPUT: H-Output-2
** 
*Output, history, variable=PRESELECT
*End Step
** ----------------------------------------------------------------
** 
** STEP: Step-3
** 
*Step, name=Step-3, nlgeom=YES, inc=1000
*Static
0.02, 1., 1e-08, 0.05
** 
** OUTPUT REQUESTS
** 
*Restart, write, frequency=5
** 
** FIELD OUTPUT: F-Output-2
** 
*Output, field, variable=PRESELECT
** 
** HISTORY OUTPUT: H-Output-2
** 
*Output, history, variable=PRESELECT
*End Step
